24
written by output2xyz.ipynb
C    -2.54980  -1.61420  -0.90286
C    -3.60731  -1.50196   0.00444
C    -3.57635  -0.50924   0.98338
C    -2.49242   0.36757   1.05183
C    -1.42788   0.25766   0.14856
C    -1.46477  -0.74322  -0.83374
C    -0.26453   1.21134   0.27892
Cl   -0.02083   2.21102  -1.24552
C     1.06346   0.53636   0.65319
O     1.53479   0.78742   1.77004
N     1.57220  -0.31006  -0.29621
C     2.73380  -0.87027  -0.09942
O     3.18861  -1.63599  -1.10977
N     3.49939  -0.77708   1.01009
H    -0.46469   1.94085   1.06217
H    -4.45167  -2.18376  -0.05488
H    -4.39543  -0.41145   1.69083
H    -2.47350   1.14426   1.81260
H    -0.63908  -0.83174  -1.53060
H    -2.57104  -2.38467  -1.66911
H     4.48912  -0.98031   0.98802
H     3.96615  -2.14493  -0.82781
H     3.12073  -0.14134   1.71757
X     0.14149   2.87688  -2.26091
