26
written by output2xyz.ipynb
C     0.58809  -0.64648   1.25573
C     1.95501  -0.37963   1.17629
C     2.54246  -0.21630  -0.07632
C     1.78972  -0.32160  -1.24555
C     0.42620  -0.59347  -1.15216
C    -0.18789  -0.75020   0.09681
C    -1.64232  -1.08507   0.17281
H    -1.94155  -2.03660  -0.27058
C    -2.74400  -0.07153   0.20965
O    -2.34521  -0.80080   1.37962
C    -2.41324   1.41125   0.21801
O    -2.66177   2.13323  -0.74843
N    -1.84871   1.85540   1.36075
C    -4.07404  -0.55495  -0.39310
O    -4.45120  -1.69805  -0.18528
N    -4.72724   0.35145  -1.15751
Br    4.41329   0.15463  -0.19482
H     0.12116  -0.78990   2.22565
H     2.55721  -0.30410   2.07517
H     2.26244  -0.19125  -2.21279
H    -0.16416  -0.67573  -2.06119
H    -1.65036   1.21367   2.11385
H    -1.55696   2.82059   1.41865
H    -4.28000   1.23421  -1.38683
H    -5.55575   0.04213  -1.64600
X     5.68101   0.40598  -0.27512
