32
written by output2xyz.ipynb
C     2.73800  -2.82930   1.12898
C     2.09906  -2.53628  -0.24748
C     1.28472  -3.74686  -0.72786
C     1.31185  -1.22697  -0.21674
C    -0.08542  -1.20886  -0.11772
C    -0.76612   0.00122  -0.05789
C    -0.08629   1.21494  -0.10172
C     1.30801   1.23920  -0.20334
C     1.98901   0.00767  -0.25132
O     3.35904   0.08140  -0.33195
C     2.10284   2.54026  -0.23519
C     1.31038   3.73805  -0.77958
C     2.68290   2.85782   1.15974
I    -2.91112  -0.00352   0.10144
H     1.95713  -2.99418   1.87981
H     3.36461  -3.72808   1.08535
H     3.35799  -1.99636   1.47832
H     2.91598  -2.42005  -0.98138
H     0.80040  -3.55214  -1.69049
H     1.94203  -4.61524  -0.84564
H     0.50923  -4.02324  -0.00450
H    -0.63502  -2.14161  -0.09208
H    -0.63712   2.14690  -0.06497
H     3.72397  -0.80697  -0.45594
H     2.95299   2.37157  -0.90715
H     1.97627   4.60016  -0.89877
H     0.86262   3.51901  -1.75542
H     0.50724   4.04460  -0.09848
H     3.30397   2.03445   1.52479
H     3.30289   3.76181   1.12150
H     1.87829   3.02930   1.88520
X    -4.29322  -0.00657   0.20410
