24
written by output2xyz.ipynb
C    -0.81707  -1.26182  -0.21464
C    -2.17422  -1.14284  -0.50902
C    -2.88080  -0.04354  -0.02127
C    -2.24929   0.92567   0.75483
C    -0.88912   0.78828   1.03681
C    -0.14918  -0.30106   0.55896
C     1.33270  -0.42707   0.83108
C     2.20381   0.07926  -0.33871
H     1.91220  -0.46201  -1.24888
C     3.69264  -0.27466  -0.11205
O     4.05502  -1.28593   0.44184
O     4.54166   0.63001  -0.62187
N     2.09959   1.51401  -0.65394
Cl   -4.59407   0.11663  -0.38453
H    -0.27009  -2.12481  -0.58796
H    -2.68133  -1.89552  -1.10339
H    -2.81288   1.77029   1.13684
H    -0.40270   1.53875   1.65609
H     1.60205   0.13312   1.73637
H     1.60991  -1.46882   1.01863
H     1.25958   1.71000  -1.19296
H     2.03149   2.06236   0.20330
H     3.96366   1.34984  -0.97927
X    -5.78750   0.22821  -0.63756
