32
written by output2xyz.ipynb
C    -5.11687  -1.27168   0.95225
C    -5.19946  -0.58049  -0.40935
C    -6.57553   0.04250  -0.65218
N    -4.20030   0.49794  -0.48878
N    -2.88529   0.03529  -0.54093
C    -1.93028   0.47686   0.34388
O    -2.10256   1.31693   1.20169
C    -0.58154  -0.23950   0.16917
O     0.40946   0.76342   0.04479
C     1.72002   0.38140   0.01217
C     2.65058   1.42803  -0.06862
C     4.01185   1.15625  -0.11290
C     4.45105  -0.16985  -0.07591
C     3.53936  -1.21585   0.00500
C     2.16843  -0.94331   0.04825
Cl    6.17668  -0.51672  -0.13284
H    -5.84573  -2.08766   1.01118
H    -4.12173  -1.69498   1.12197
H    -5.32052  -0.55390   1.75351
H    -5.01723  -1.33867  -1.19789
H    -6.63294   0.52006  -1.63866
H    -7.35504  -0.72453  -0.60864
H    -6.79034   0.80051   0.10868
H    -4.37471   1.08683  -1.30225
H    -2.62709  -0.63003  -1.26621
H    -0.56601  -0.90844  -0.70473
H    -0.40936  -0.84811   1.06810
H     2.28305   2.44880  -0.09125
H     4.73096   1.96618  -0.17347
H     3.88966  -2.24220   0.03383
H     1.47176  -1.77138   0.10960
X     7.37707  -0.75800  -0.17244
