25
written by output2xyz.ipynb
S    -0.87830  -0.83071   0.10056
C     0.69654   0.05426  -0.04710
N     0.66758   1.32876  -0.14373
C    -0.68164   1.85019  -0.01852
C    -1.73175   0.74538  -0.34415
N     1.81406  -0.73564  -0.03561
C     3.16819  -0.37225  -0.01554
N     3.98183  -1.43779  -0.00833
C     5.29896  -1.21400   0.01832
C     5.86674   0.05844   0.04079
C     5.00192   1.15463   0.03049
C     3.62547   0.95489  -0.00074
C    -3.02690   0.94994   0.41596
Br   -4.38314  -0.41699  -0.03905
H    -1.93662   0.71824  -1.41866
H     5.39559   2.16760   0.04401
H     6.94451   0.18322   0.06288
H     5.92739  -2.10305   0.02214
H     2.91712   1.77172  -0.01916
H    -0.83287   2.22054   1.00815
H    -0.82064   2.70321  -0.69237
H    -2.88514   0.88052   1.49431
H    -3.48305   1.90743   0.15753
H     1.68704  -1.73956  -0.06459
X    -5.27073  -1.31157  -0.33683
