22
written by output2xyz.ipynb
C    -1.35194   2.32558   0.42124
C    -0.63093   0.98709   0.44436
H    -0.28619   0.72420   1.44550
C     0.54893   0.91742  -0.53391
H     0.19600   1.00653  -1.57044
O     1.41812   2.00452  -0.21171
C     2.73734   1.48671  -0.07515
C     2.50181   0.02185   0.29266
H     2.33571  -0.08974   1.37424
O     1.29998  -0.27073  -0.42767
C     3.60854  -0.92360  -0.13354
O     3.37199  -2.18578   0.46372
I    -2.06782  -0.64620  -0.04324
H    -1.74323   2.55124  -0.57635
H    -2.18521   2.33829   1.12810
H    -0.64092   3.11214   0.69863
H     3.28858   1.57701  -1.02400
H     3.25761   2.05831   0.69830
H     3.61216  -0.97714  -1.23252
H     4.57503  -0.49955   0.19179
H     3.98179  -2.82699   0.06988
X    -2.96109  -1.66156  -0.34637
