25
written by output2xyz.ipynb
C     1.08065   0.77260  -0.60922
C     0.83203   2.14619  -0.50992
C    -0.44763   2.62861  -0.23757
C    -1.52032   1.74825  -0.05648
C    -1.27815   0.36949  -0.15841
C    -0.00008  -0.10575  -0.43125
O    -2.78148   2.17791   0.20993
I    -2.88666  -1.00931   0.09776
C     2.47119   0.23635  -0.87469
C     3.14589  -0.37150   0.37984
N     3.35229   0.65391   1.41522
C     4.51270  -0.94923  -0.04281
O     4.61923  -1.96380  -0.69101
O     5.55665  -0.19604   0.33656
H     2.53544  -1.21602   0.72505
H     1.64350   2.85390  -0.66260
H    -0.62153   3.70115  -0.17059
H     0.16169  -1.17609  -0.51494
H     2.44988  -0.54899  -1.63725
H     3.11240   1.03993  -1.25792
H     2.59735   1.33746   1.39833
H     3.34940   0.23465   2.34310
H     5.15420   0.54732   0.85456
H    -2.78831   3.14780   0.23386
X    -3.93129  -1.90475   0.26412
