23
written by output2xyz.ipynb
C    -3.60706   1.82559   0.00020
O    -3.14359   0.48290  -0.00021
C    -1.81680   0.23991  -0.00015
C    -0.85358   1.25781  -0.00022
C     0.51506   0.95412  -0.00017
C     0.92062  -0.39384  -0.00006
C    -0.03303  -1.39421  -0.00001
C    -1.40861  -1.11781  -0.00005
C    -2.32726  -2.27272   0.00007
O    -3.54232  -2.25189   0.00012
Br    2.77395  -0.83110   0.00004
O     1.49193   1.88677  -0.00026
C     1.13733   3.26391   0.00028
H    -4.69557   1.75745   0.00051
H    -3.27614   2.36566  -0.89625
H    -3.27560   2.36528   0.89667
H    -1.16569   2.29232  -0.00041
H     0.29040  -2.43131   0.00008
H    -1.78212  -3.24598   0.00018
H     2.08212   3.80881   0.00062
H     0.56333   3.52906  -0.89625
H     0.56309   3.52830   0.89687
X     4.03424  -1.12844   0.00011
