28
written by output2xyz.ipynb
C     2.39302   1.49164  -1.02841
C     1.52411   0.65946  -0.10133
C     2.09205   0.46411   1.34387
C     1.27762  -0.73442   1.91981
C     0.27248  -1.04888   0.77861
H    -0.21328  -2.02434   0.85480
C     1.14057  -0.81147  -0.50773
C     2.33637  -1.77378  -0.61397
C     0.37787  -0.89145  -1.84351
C    -0.70612   0.13814   0.80076
H    -0.99166   0.43975   1.80962
C     0.12381   1.25433   0.12110
O    -0.25301   2.36928  -0.14842
Br   -2.45532  -0.16162  -0.07269
H     1.94156   1.58706  -2.02124
H     2.51535   2.50472  -0.63090
H     3.38759   1.04587  -1.14163
H     3.16258   0.24192   1.28889
H     1.98989   1.37547   1.94279
H     1.91658  -1.59667   2.12911
H     0.76634  -0.48587   2.85561
H     2.99555  -1.76896   0.25735
H     1.97654  -2.80115  -0.74976
H     2.94748  -1.52620  -1.48935
H     1.06361  -0.69708  -2.67632
H    -0.03909  -1.89480  -1.98751
H    -0.44932  -0.18334  -1.92514
X    -3.60044  -0.35785  -0.64449
