25
written by output2xyz.ipynb
C    -4.20481   1.28942   0.23492
C    -2.72571   1.50646   0.20484
C    -1.67885   0.54237   0.08796
C    -0.51076   1.26642   0.10152
O    -0.84329   2.57618   0.22503
N    -2.23275   2.72138   0.28517
C     0.92044   0.98164  -0.00181
C     1.77993   1.99652  -0.45829
C     3.16327   1.79793  -0.57088
C     3.64947   0.55537  -0.21059
C     2.80564  -0.45505   0.24768
C     1.44510  -0.28182   0.36864
O     3.54335  -1.57703   0.53561
C     4.91060  -1.22534   0.29928
O     4.94254   0.10717  -0.23201
I    -1.99802  -1.52326  -0.16364
H    -4.54716   0.79851  -0.68287
H    -4.48960   0.64802   1.07630
H    -4.71569   2.25013   0.33341
H     1.35948   2.95733  -0.73133
H     3.82238   2.58181  -0.92687
H     0.81576  -1.07728   0.74479
H     5.46642  -1.25273   1.24491
H     5.34592  -1.91684  -0.42991
X    -2.20813  -2.88310  -0.32928
