20
written by output2xyz.ipynb
N     3.13141  -0.28316   0.00011
C     1.80892  -0.14418   0.00001
N     1.15295  -1.36422   0.00002
C     2.13425  -2.32677  -0.00015
C     3.33174  -1.63126  -0.00002
C    -0.23454  -1.43312   0.00002
C    -0.88856  -0.23627   0.00001
N    -0.32190   0.98537   0.00000
C     1.00417   1.04397  -0.00001
N     1.63840   2.23639   0.00032
C     0.93739   3.50618  -0.00021
Br   -2.80623  -0.27357   0.00001
H     0.30082   3.60559   0.88610
H     1.67723   4.30927  -0.00197
H     0.29875   3.60349  -0.88524
H     2.64793   2.20399   0.00005
H     4.32846  -2.05269  -0.00004
H     1.90154  -3.38057  -0.00030
H    -0.70302  -2.40608   0.00001
X    -4.10088  -0.29875   0.00001
