18
written by output2xyz.ipynb
C     1.11447   2.44989   0.06510
C     1.41259   0.97778   0.03375
C     0.53825  -0.04499   0.31674
S     1.36455  -1.57830   0.13277
C     2.81063  -0.70566  -0.30302
N     2.69497   0.58655  -0.31106
C    -0.91858   0.01696   0.68755
C    -1.81829  -0.15302  -0.54133
Cl   -3.57605  -0.06561  -0.08550
H     1.21716   2.88527  -0.93595
H     0.10414   2.66029   0.42531
H     1.82837   2.96748   0.71531
H     3.72670  -1.23516  -0.53936
H    -1.16740  -0.75510   1.42370
H    -1.13613   0.98035   1.15954
H    -1.64454   0.63594  -1.27502
H    -1.66759  -1.12255  -1.01964
X    -4.76050  -0.00670   0.22165
