24
written by output2xyz.ipynb
C     6.11973  -0.27229  -0.57336
C     5.50407  -1.47925  -0.23944
N     4.21170  -1.56481   0.07461
C     3.52634  -0.40490   0.05232
N     4.00192   0.80782  -0.23946
C     5.30055   0.85451  -0.55112
N     2.18932  -0.56201   0.40150
C     1.15737   0.35377   0.40346
N     1.14067   1.50584  -0.13216
C    -0.08803   2.21539   0.16982
C    -1.23732   1.21812   0.54206
H    -1.88722   1.64929   1.30624
S    -0.33432  -0.20167   1.28713
C    -2.04806   0.84125  -0.69056
I    -3.76642  -0.47449  -0.26162
H     7.17125  -0.21521  -0.83076
H     6.06345  -2.41341  -0.22229
H     5.69470   1.84122  -0.79006
H     1.96131  -1.51740   0.64392
H    -0.38141   2.83363  -0.68716
H     0.08631   2.89674   1.01475
H    -2.49853   1.72627  -1.14352
H    -1.45344   0.30572  -1.43020
X    -4.84582  -1.30097   0.00783
