26
written by output2xyz.ipynb
C    -0.17955   0.02771   0.18042
C    -1.52435  -0.03326   0.06456
C    -2.30937   1.17216  -0.21024
O    -3.51556   1.25215  -0.33683
N    -1.49420   2.31579  -0.32842
H    -1.98214   3.18373  -0.52213
C    -0.12044   2.43043  -0.21694
O     0.46827   3.49169  -0.33573
N     0.52359   1.21339   0.05760
C     1.98611   1.22770   0.17019
H     2.27673   2.26008  -0.01970
C     2.51908   0.67849   1.50926
O     2.80491  -0.68209   1.21049
C     3.31384  -0.65527  -0.10047
H     4.37908  -0.36532  -0.08997
O     2.56894   0.35906  -0.79281
C     3.12868  -1.99745  -0.79681
O     1.77104  -2.31564  -1.02323
Br   -2.45361  -1.66803   0.23478
H     0.42422  -0.85636   0.35349
H     3.43330   1.21750   1.79898
H     1.79536   0.71964   2.32461
H     3.70777  -1.98401  -1.73222
H     3.54045  -2.78080  -0.15412
H     1.43081  -1.66203  -1.65548
X    -3.09091  -2.78918   0.35152
