15
written by output2xyz.ipynb
C     2.08357   1.82122   0.00001
C     2.99694   0.77282  -0.00001
C     2.54604  -0.56133  -0.00007
C     1.15738  -0.80691   0.00004
C     0.27326   0.26526   0.00002
C     0.70450   1.59012   0.00002
I    -1.83956  -0.14370   0.00000
N     3.43817  -1.60964  -0.00015
H     2.44975   2.84481  -0.00002
H     4.06478   0.97759  -0.00005
H     0.79207  -1.82894   0.00014
H     0.00090   2.41347  -0.00006
H     4.43108  -1.44547   0.00099
H     3.12104  -2.56475   0.00003
X    -3.20022  -0.40708  -0.00001
