19
written by output2xyz.ipynb
C    -2.11280   1.92771  -0.00002
C    -0.88157   2.62479   0.00005
C     0.29677   1.91230   0.00003
C     0.25901   0.49471   0.00001
C    -1.03815  -0.10382  -0.00002
N    -2.19421   0.61103  -0.00004
C    -1.18318  -1.52671   0.00001
C    -0.05927  -2.32744   0.00004
C     1.22502  -1.74022   0.00003
C     1.38579  -0.37141   0.00001
Cl    3.01210   0.30641  -0.00003
O    -2.42783  -2.04697  -0.00001
H    -0.87756   3.71020  -0.00001
H     1.25552   2.42027   0.00010
H     2.10189  -2.37913   0.00003
H    -0.16987  -3.40643   0.00008
H    -3.05352   2.47547   0.00001
H    -3.02978  -1.27040  -0.00010
X     4.14286   0.77770  -0.00006
