26
written by output2xyz.ipynb
C    -6.89799  -1.16537   0.00050
C    -7.28226   0.17599   0.00062
C    -6.28617   1.15527   0.00035
N    -4.98051   0.87068  -0.00001
C    -4.62043  -0.42392  -0.00014
C    -5.53987  -1.47569   0.00011
C    -3.14541  -0.75113  -0.00059
O    -2.73269  -1.89855  -0.00049
N    -2.35894   0.37980  -0.00055
N    -1.00832   0.30572  -0.00065
C    -0.37704   1.42816  -0.00051
C     1.06087   1.50937  -0.00020
C     1.90057   2.59728   0.00039
C     3.23415   2.09081  -0.00008
C     3.10404   0.73127   0.00011
O     1.80331   0.35549  -0.00007
I     4.54050  -0.79178   0.00015
H    -7.64417  -1.95506   0.00070
H    -8.32931   0.46311   0.00093
H    -6.54788   2.21166   0.00044
H    -5.17068  -2.49487  -0.00002
H    -2.84851   1.27613  -0.00043
H    -0.89566   2.39587  -0.00023
H     1.59832   3.63574   0.00065
H     4.15769   2.65027  -0.00017
X     5.49142  -1.80000   0.00017
