26
written by output2xyz.ipynb
C     2.54368   0.53805   0.11118
C     1.16137   0.65158   0.04928
C     0.40438  -0.54793   0.05645
N     1.05488  -1.72091   0.04663
C     2.39669  -1.71087   0.06007
N     3.19186  -0.62787   0.13643
N     3.01983  -2.92550  -0.02475
N    -0.97897  -0.59584   0.01476
C    -1.78643   0.16733   0.98117
C    -3.19757   0.34973   0.42998
O    -3.80467  -0.90003   0.13381
C    -3.02728  -1.62897  -0.80649
C    -1.60880  -1.88452  -0.29848
Br    0.42411   2.39884  -0.19772
H     3.15572   1.43755   0.12367
H     3.99616  -2.94883   0.23052
H     2.46283  -3.74168   0.17994
H    -1.83675  -0.38662   1.93319
H    -1.33471   1.13899   1.17402
H    -3.15561   0.98034  -0.47302
H    -3.83587   0.83722   1.17294
H    -2.98240  -1.08456  -1.76423
H    -3.54693  -2.57842  -0.96744
H    -1.01768  -2.39478  -1.06082
H    -1.64059  -2.53379   0.59027
X    -0.07508   3.58188  -0.36495
