28
written by output2xyz.ipynb
C    -4.55712   1.19055   1.79797
C    -3.76961   0.29902   0.88748
C    -4.22135  -0.85576   0.17740
C    -3.13377  -1.34057  -0.50177
N    -2.09295  -0.46733  -0.19799
N    -2.49051   0.53122   0.66154
C    -0.75106  -0.58332  -0.61032
O    -0.33467  -1.61938  -1.09623
C     0.11895   0.60982  -0.44731
C     1.50001   0.62711  -0.12403
C     1.87438   1.95102  -0.22598
N     0.76336   2.63467  -0.61371
N    -0.30955   1.84345  -0.74391
C     0.62194   4.06718  -0.81427
I     2.78360  -0.93754   0.45237
C    -3.02170  -2.52447  -1.40834
H    -4.98555   0.62582   2.63490
H    -3.91174   1.97503   2.20133
H    -5.39018   1.66533   1.26511
H    -5.21831  -1.27514   0.16898
H     2.82341   2.43757  -0.05746
H     0.17613   4.53769   0.06784
H     1.60671   4.50049  -1.00152
H    -0.02425   4.23641  -1.67733
H    -2.35769  -3.28891  -0.99468
H    -4.01627  -2.95672  -1.55375
H    -2.61200  -2.25056  -2.38584
X     3.62899  -1.96805   0.83200
