17
written by output2xyz.ipynb
C     0.63382   1.97053  -0.00012
C     1.98682   1.54441  -0.00026
C     1.93013   0.17637  -0.00008
O     0.66271  -0.28071   0.00010
C    -0.13693   0.83135   0.00004
C    -1.60335   0.65628   0.00027
O    -2.32497   1.63272   0.00027
C    -2.09725  -0.78971   0.00145
Cl   -3.87904  -0.90816  -0.00079
N     2.98347  -0.79829  -0.00011
O     4.12899  -0.34295  -0.00024
O     2.66689  -1.98498   0.00004
H     0.25275   2.98137  -0.00017
H     2.88578   2.14155  -0.00045
H    -1.71248  -1.31346  -0.87865
H    -1.71503  -1.31085   0.88424
X    -5.10139  -0.98941  -0.00232
