23
written by output2xyz.ipynb
C    -2.57553   2.14505   0.47889
C    -2.68606   0.68980   0.13948
C    -1.67887  -0.24266  -0.07221
N    -2.35246  -1.43827  -0.29528
H    -1.92283  -2.31119  -0.56565
C    -3.68716  -1.17580  -0.23386
N    -3.92310   0.08935   0.03672
C    -0.21880  -0.16427  -0.04865
C     0.45388   0.99972  -0.46376
C     1.84390   1.08046  -0.43761
C     2.58615  -0.01834  -0.00718
C     1.95176  -1.19035   0.40256
C     0.56101  -1.25336   0.38530
Cl    4.34196   0.07369   0.01822
H    -3.42211   2.43743   1.10697
H    -1.64794   2.36777   1.01609
H    -2.60303   2.77937  -0.41757
H    -4.43640  -1.94081  -0.38956
H    -0.11633   1.84478  -0.83461
H     2.34888   1.98361  -0.76362
H     2.53873  -2.03643   0.74420
H     0.07486  -2.15616   0.74615
X     5.56520   0.13781   0.03593
