26
written by output2xyz.ipynb
C     3.15878   1.27422   0.00006
C     1.71108   0.85515  -0.00007
C     0.68692   1.80781  -0.00022
C    -0.66363   1.44832  -0.00030
C    -1.05032   0.09732  -0.00026
C    -0.02802  -0.85589  -0.00005
C     1.31473  -0.48776   0.00006
Cl    2.53575  -1.76543   0.00028
C    -2.51743  -0.31417  -0.00035
C    -2.88409  -1.10607  -1.27003
C    -2.88483  -1.10336   1.27081
O    -1.65282   2.39930  -0.00051
H     3.68603   0.88666  -0.87936
H     3.24916   2.36452  -0.00001
H     3.68588   0.88677   0.87962
H     0.95550   2.86360  -0.00030
H    -0.27971  -1.91155   0.00002
H    -3.11049   0.60520  -0.00149
H    -2.65840  -0.53130  -2.17476
H    -2.33105  -2.05144  -1.32728
H    -3.95400  -1.34625  -1.27664
H    -2.65978  -0.52659   2.17442
H    -3.95471  -1.34368   1.27727
H    -2.33166  -2.04851   1.33043
H    -1.24114   3.27701  -0.00051
X     3.38213  -2.65108   0.00044
