20
written by output2xyz.ipynb
C    -1.20057  -1.39652   0.00003
C    -2.49972  -1.77163   0.00001
C    -3.58844  -0.80182   0.00061
O    -4.77153  -1.05127  -0.00047
O    -3.19552   0.53245   0.00016
C    -1.88589   0.92538   0.00004
C    -0.82478  -0.00141   0.00010
C     0.49612   0.50072   0.00005
C     0.77243   1.87626  -0.00002
C    -0.33844   2.75897  -0.00007
C    -1.64041   2.29941  -0.00006
N     2.03897   2.40424  -0.00013
I     2.16113  -0.86955  -0.00001
H    -0.41936  -2.14913  -0.00015
H    -2.79836  -2.81354  -0.00038
H    -0.14690   3.82904  -0.00013
H    -2.48080   2.98504  -0.00009
H     2.85688   1.81768   0.00032
H     2.17033   3.40158   0.00027
X     3.23125  -1.75023  -0.00005
