31
written by output2xyz.ipynb
C    -6.69260  -1.01921  -0.09175
N    -5.61334  -0.04640   0.00728
C    -6.03434   1.33729   0.13730
C    -4.31258  -0.48717  -0.04047
O    -4.03204  -1.67805  -0.14827
C    -3.20230   0.56467   0.04860
C    -1.82232  -0.08386  -0.05397
N    -0.78915   0.93050   0.11019
C     0.56450   0.60746   0.04995
C     1.03288  -0.71335   0.17469
C     2.40045  -0.98834   0.16006
C     3.31739   0.04671   0.01127
C     2.87727   1.36350  -0.12295
C     1.51526   1.63713  -0.10240
Br    5.19420  -0.33532  -0.01635
H    -7.32503  -0.98365   0.80513
H    -7.32180  -0.80637  -0.96619
H    -6.25456  -2.01120  -0.18991
H    -6.60187   1.65704  -0.74808
H    -6.68512   1.45683   1.01415
H    -5.18224   2.00437   0.25655
H    -3.27179   1.11415   0.99639
H    -3.32798   1.30728  -0.75258
H    -1.73350  -0.62809  -1.00639
H    -1.72527  -0.82993   0.73978
H    -1.00730   1.81468  -0.33354
H     0.33503  -1.53613   0.28219
H     2.74633  -2.01193   0.25777
H     3.59380   2.16918  -0.24242
H     1.17637   2.66664  -0.19864
X     6.46295  -0.59357  -0.03502
