27
written by output2xyz.ipynb
C     4.35694  -0.29318   1.30826
C     3.86177  -0.12526  -0.12190
H     4.66819  -0.31010  -0.83632
C     3.15544   1.23572  -0.38956
C     1.70736   0.83125  -0.67485
H     1.48210   0.80856  -1.75317
N     1.65198  -0.51127  -0.10358
O     2.86717  -1.13835  -0.44613
C     0.47663  -1.23373  -0.15597
O     0.38931  -2.44804  -0.16570
C    -0.68821  -0.28998  -0.09092
C    -1.98369  -0.81494  -0.04979
C    -3.06684   0.04395   0.08475
C    -2.87953   1.42581   0.19185
C    -1.59267   1.95512   0.14785
C    -0.49981   1.10091  -0.00002
O     0.75791   1.65752  -0.02752
Cl   -4.69760  -0.61018   0.13264
H     3.52914  -0.17400   2.01504
H     4.79274  -1.28708   1.44691
H     5.12186   0.45759   1.53949
H     3.59386   1.77996  -1.22912
H     3.17815   1.87844   0.49489
H    -2.10965  -1.89024  -0.11033
H    -3.73705   2.08134   0.29970
H    -1.42353   3.02444   0.21977
X    -5.83416  -1.06608   0.16602
