28
written by output2xyz.ipynb
C     4.91746   1.20907  -0.06290
C     3.43379   0.93272  -0.05810
C     2.54376   2.01310  -0.15783
C     1.15934   1.87780  -0.16137
C     0.59346   0.59790  -0.05671
C     1.44147  -0.50472   0.04852
C     2.82506  -0.33376   0.04523
N     3.61691  -1.57434   0.15843
O     3.00792  -2.63082   0.33468
O     4.84229  -1.49709   0.06910
N    -0.79361   0.35021  -0.04771
C    -1.81074   1.25132  -0.15579
O    -1.67832   2.46335  -0.27288
C    -3.25303   0.72250  -0.08029
H    -3.77137   1.09392  -0.96426
C    -3.94314   1.18932   1.19830
Br   -3.42416  -1.26695  -0.23486
H     5.41427   0.74044  -0.91719
H     5.08581   2.28935  -0.10736
H     5.40927   0.81308   0.83007
H     2.96236   3.01249  -0.23689
H     0.51669   2.74314  -0.24374
H     1.05001  -1.51137   0.13596
H    -1.07175  -0.62307   0.01554
H    -3.86894   2.28012   1.25446
H    -4.99737   0.90203   1.19393
H    -3.46617   0.75680   2.08292
X    -3.53480  -2.55323  -0.33479
